MODEL       1       -27.25
@<TRIPOS>MOLECULE
ligand           
 17 17 0 0 0  
SMALL        
GASTEIGER    
             
@<TRIPOS>ATOM
      1 C          29.0706   15.2839   18.0104 C.ar    1  LIG1       -0.0336
      2 C          30.0203   15.1900   16.9795 C.ar    1  LIG1       -0.0546
      3 C          30.4489   13.9419   16.5223 C.ar    1  LIG1       -0.0262
      4 C          29.9248   12.7876   17.0912 C.ar    1  LIG1        0.1234
      5 C          28.9845   12.8547   18.1096 C.ar    1  LIG1       -0.0262
      6 C          28.5532   14.0983   18.5695 C.ar    1  LIG1       -0.0546
      7 F          30.3380   11.5905   16.6497 F       1  LIG1       -0.2055
      8 C          28.5931   16.6252   18.4914 C.3     1  LIG1        0.0185
      9 N          27.3142   16.9784   17.8913 N.3     1  LIG1       -0.3261
     10 H          26.7436   17.4667   18.5725 H       1  LIG1        0.1185
     11 H          27.4773   17.6404   17.1315 H       1  LIG1        0.1185
     12 H          30.4259   16.0906   16.5268 H       1  LIG1        0.0622
     13 H          31.1811   13.8653   15.7264 H       1  LIG1        0.0646
     14 H          28.5853   11.9376   18.5350 H       1  LIG1        0.0646
     15 H          27.8064   14.1511   19.3566 H       1  LIG1        0.0622
     16 H          29.3343   17.4005   18.2653 H       1  LIG1        0.0471
     17 H          28.4947   16.6117   19.5841 H       1  LIG1        0.0471
@<TRIPOS>BOND            
     1     1     2   ar     
     2     1     6   ar     
     3     1     8    1     
     4     2     3   ar     
     5     2    12    1     
     6     3     4   ar     
     7     3    13    1     
     8     4     5   ar     
     9     4     7    1     
    10     5     6   ar     
    11     5    14    1     
    12     6    15    1     
    13     8     9    1     
    14     8    16    1     
    15     8    17    1     
    16     9    10    1     
    17     9    11    1     
TER
ENDMDL
MODEL       2       -32.56
@<TRIPOS>MOLECULE
ligand           
 17 17 0 0 0  
SMALL        
GASTEIGER    
             
@<TRIPOS>ATOM
      1 C          29.8305   14.3937   16.6621 C.ar    1  LIG1       -0.0336
      2 C          30.2595   13.0693   16.8537 C.ar    1  LIG1       -0.0546
      3 C          29.5196   12.1965   17.6510 C.ar    1  LIG1       -0.0262
      4 C          28.3479   12.6438   18.2556 C.ar    1  LIG1        0.1234
      5 C          27.9050   13.9461   18.0744 C.ar    1  LIG1       -0.0262
      6 C          28.6394   14.8173   17.2769 C.ar    1  LIG1       -0.0546
      7 F          27.6395   11.8040   19.0182 F       1  LIG1       -0.2055
      8 C          30.6222   15.3321   15.7856 C.3     1  LIG1        0.0185
      9 N          30.8589   16.6136   16.4436 N.3     1  LIG1       -0.3261
     10 H          29.9708   17.0988   16.5506 H       1  LIG1        0.1185
     11 H          31.1866   16.4318   17.3933 H       1  LIG1        0.1185
     12 H          31.1732   12.7131   16.3818 H       1  LIG1        0.0622
     13 H          29.8448   11.1723   17.8042 H       1  LIG1        0.0646
     14 H          26.9847   14.2718   18.5551 H       1  LIG1        0.0646
     15 H          28.2813   15.8348   17.1369 H       1  LIG1        0.0622
     16 H          30.0837   15.4942   14.8443 H       1  LIG1        0.0471
     17 H          31.5881   14.8847   15.5240 H       1  LIG1        0.0471
@<TRIPOS>BOND            
     1     1     2   ar     
     2     1     6   ar     
     3     1     8    1     
     4     2     3   ar     
     5     2    12    1     
     6     3     4   ar     
     7     3    13    1     
     8     4     5   ar     
     9     4     7    1     
    10     5     6   ar     
    11     5    14    1     
    12     6    15    1     
    13     8     9    1     
    14     8    16    1     
    15     8    17    1     
    16     9    10    1     
    17     9    11    1     
TER
ENDMDL
MODEL       3       -22.08
@<TRIPOS>MOLECULE
ligand           
 17 17 0 0 0  
SMALL        
GASTEIGER    
             
@<TRIPOS>ATOM
      1 C          29.3542   13.4349   17.6466 C.ar    1  LIG1       -0.0336
      2 C          30.4946   13.1028   16.8966 C.ar    1  LIG1       -0.0546
      3 C          30.6654   11.8068   16.4041 C.ar    1  LIG1       -0.0262
      4 C          29.6955   10.8454   16.6557 C.ar    1  LIG1        0.1234
      5 C          28.5595   11.1495   17.3918 C.ar    1  LIG1       -0.0262
      6 C          28.3837   12.4419   17.8864 C.ar    1  LIG1       -0.0546
      7 F          29.8625    9.6018   16.1803 F       1  LIG1       -0.2055
      8 C          29.1577   14.8329   18.1623 C.3     1  LIG1        0.0185
      9 N          28.2616   15.5949   17.3035 N.3     1  LIG1       -0.3261
     10 H          27.8032   16.3161   17.8462 H       1  LIG1        0.1185
     11 H          28.8179   16.0782   16.5957 H       1  LIG1        0.1185
     12 H          31.2518   13.8542   16.6915 H       1  LIG1        0.0622
     13 H          31.5443   11.5467   15.8242 H       1  LIG1        0.0646
     14 H          27.8117   10.3813   17.5713 H       1  LIG1        0.0646
     15 H          27.4878   12.6847   18.4503 H       1  LIG1        0.0622
     16 H          30.1196   15.3520   18.2449 H       1  LIG1        0.0471
     17 H          28.7451   14.7948   19.1783 H       1  LIG1        0.0471
@<TRIPOS>BOND            
     1     1     2   ar     
     2     1     6   ar     
     3     1     8    1     
     4     2     3   ar     
     5     2    12    1     
     6     3     4   ar     
     7     3    13    1     
     8     4     5   ar     
     9     4     7    1     
    10     5     6   ar     
    11     5    14    1     
    12     6    15    1     
    13     8     9    1     
    14     8    16    1     
    15     8    17    1     
    16     9    10    1     
    17     9    11    1     
TER
ENDMDL
MODEL       4       -26.22
@<TRIPOS>MOLECULE
ligand           
 17 17 0 0 0  
SMALL        
GASTEIGER    
             
@<TRIPOS>ATOM
      1 C          28.5794   13.5614   19.2758 C.ar    1  LIG1       -0.0336
      2 C          29.5136   13.0451   18.3628 C.ar    1  LIG1       -0.0546
      3 C          29.2990   11.8082   17.7531 C.ar    1  LIG1       -0.0262
      4 C          28.1513   11.0859   18.0544 C.ar    1  LIG1        0.1234
      5 C          27.2118   11.5776   18.9515 C.ar    1  LIG1       -0.0262
      6 C          27.4221   12.8133   19.5584 C.ar    1  LIG1       -0.0546
      7 F          27.9450    9.8994   17.4678 F       1  LIG1       -0.2055
      8 C          28.8017   14.9043   19.9207 C.3     1  LIG1        0.0185
      9 N          28.8472   14.8031   21.3740 N.3     1  LIG1       -0.3261
     10 H          28.9534   15.7313   21.7698 H       1  LIG1        0.1185
     11 H          27.9475   14.4596   21.7108 H       1  LIG1        0.1185
     12 H          30.4148   13.6058   18.1228 H       1  LIG1        0.0622
     13 H          30.0178   11.4049   17.0468 H       1  LIG1        0.0646
     14 H          26.3204   10.9955   19.1705 H       1  LIG1        0.0646
     15 H          26.6826   13.1934   20.2588 H       1  LIG1        0.0622
     16 H          28.0000   15.5884   19.6207 H       1  LIG1        0.0471
     17 H          29.7421   15.3441   19.5677 H       1  LIG1        0.0471
@<TRIPOS>BOND            
     1     1     2   ar     
     2     1     6   ar     
     3     1     8    1     
     4     2     3   ar     
     5     2    12    1     
     6     3     4   ar     
     7     3    13    1     
     8     4     5   ar     
     9     4     7    1     
    10     5     6   ar     
    11     5    14    1     
    12     6    15    1     
    13     8     9    1     
    14     8    16    1     
    15     8    17    1     
    16     9    10    1     
    17     9    11    1     
TER
ENDMDL
MODEL       5       -29.74
@<TRIPOS>MOLECULE
ligand           
 17 17 0 0 0  
SMALL        
GASTEIGER    
             
@<TRIPOS>ATOM
      1 C          27.9927   14.7533   18.5556 C.ar    1  LIG1       -0.0336
      2 C          28.9076   14.9390   17.5047 C.ar    1  LIG1       -0.0546
      3 C          29.3633   13.8477   16.7645 C.ar    1  LIG1       -0.0262
      4 C          28.9079   12.5725   17.0744 C.ar    1  LIG1        0.1234
      5 C          28.0089   12.3659   18.1137 C.ar    1  LIG1       -0.0262
      6 C          27.5533   13.4553   18.8572 C.ar    1  LIG1       -0.0546
      7 F          29.3421   11.5257   16.3605 F       1  LIG1       -0.2055
      8 C          27.4978   15.9347   19.3532 C.3     1  LIG1        0.0185
      9 N          28.5391   16.4862   20.2119 N.3     1  LIG1       -0.3261
     10 H          28.3381   16.2380   21.1811 H       1  LIG1        0.1185
     11 H          29.4266   16.0321   19.9990 H       1  LIG1        0.1185
     12 H          29.2627   15.9389   17.2615 H       1  LIG1        0.0622
     13 H          30.0643   13.9828   15.9469 H       1  LIG1        0.0646
     14 H          27.6653   11.3605   18.3344 H       1  LIG1        0.0646
     15 H          26.8465   13.2874   19.6670 H       1  LIG1        0.0622
     16 H          26.6385   15.6418   19.9676 H       1  LIG1        0.0471
     17 H          27.1360   16.7090   18.6670 H       1  LIG1        0.0471
@<TRIPOS>BOND            
     1     1     2   ar     
     2     1     6   ar     
     3     1     8    1     
     4     2     3   ar     
     5     2    12    1     
     6     3     4   ar     
     7     3    13    1     
     8     4     5   ar     
     9     4     7    1     
    10     5     6   ar     
    11     5    14    1     
    12     6    15    1     
    13     8     9    1     
    14     8    16    1     
    15     8    17    1     
    16     9    10    1     
    17     9    11    1     
TER
ENDMDL
