MODEL       1       -27.06
@<TRIPOS>MOLECULE
ligand           
 17 17 0 0 0  
SMALL        
GASTEIGER    
             
@<TRIPOS>ATOM
      1 C          29.0731   15.2796   18.0133 C.ar    1  LIG1       -0.0336
      2 C          30.0193   15.1893   16.9797 C.ar    1  LIG1       -0.0546
      3 C          30.4473   13.9425   16.5216 C.ar    1  LIG1       -0.0262
      4 C          29.9257   12.7870   17.0905 C.ar    1  LIG1        0.1234
      5 C          28.9816   12.8538   18.1079 C.ar    1  LIG1       -0.0262
      6 C          28.5516   14.0995   18.5676 C.ar    1  LIG1       -0.0546
      7 F          30.3374   11.5909   16.6500 F       1  LIG1       -0.2055
      8 C          28.5914   16.6258   18.4919 C.3     1  LIG1        0.0185
      9 N          27.3143   16.9754   17.8837 N.3     1  LIG1       -0.3261
     10 H          26.7429   17.4594   18.5750 H       1  LIG1        0.1185
     11 H          27.4791   17.6554   17.1425 H       1  LIG1        0.1185
     12 H          30.4274   16.0918   16.5291 H       1  LIG1        0.0622
     13 H          31.1820   13.8654   15.7266 H       1  LIG1        0.0646
     14 H          28.5868   11.9378   18.5353 H       1  LIG1        0.0646
     15 H          27.8092   14.1474   19.3617 H       1  LIG1        0.0622
     16 H          29.3346   17.3960   18.2559 H       1  LIG1        0.0471
     17 H          28.4903   16.6230   19.5831 H       1  LIG1        0.0471
@<TRIPOS>BOND            
     1     1     2   ar     
     2     1     6   ar     
     3     1     8    1     
     4     2     3   ar     
     5     2    12    1     
     6     3     4   ar     
     7     3    13    1     
     8     4     5   ar     
     9     4     7    1     
    10     5     6   ar     
    11     5    14    1     
    12     6    15    1     
    13     8     9    1     
    14     8    16    1     
    15     8    17    1     
    16     9    10    1     
    17     9    11    1     
TER
ENDMDL
MODEL       2       -32.32
@<TRIPOS>MOLECULE
ligand           
 17 17 0 0 0  
SMALL        
GASTEIGER    
             
@<TRIPOS>ATOM
      1 C          29.8349   14.3942   16.6662 C.ar    1  LIG1       -0.0336
      2 C          30.2607   13.0693   16.8541 C.ar    1  LIG1       -0.0546
      3 C          29.5191   12.1959   17.6509 C.ar    1  LIG1       -0.0262
      4 C          28.3497   12.6433   18.2538 C.ar    1  LIG1        0.1234
      5 C          27.9057   13.9475   18.0735 C.ar    1  LIG1       -0.0262
      6 C          28.6453   14.8229   17.2768 C.ar    1  LIG1       -0.0546
      7 F          27.6390   11.8040   19.0184 F       1  LIG1       -0.2055
      8 C          30.6219   15.3313   15.7856 C.3     1  LIG1        0.0185
      9 N          30.8523   16.6085   16.4480 N.3     1  LIG1       -0.3261
     10 H          29.9600   17.0897   16.5529 H       1  LIG1        0.1185
     11 H          31.1794   16.4316   17.3970 H       1  LIG1        0.1185
     12 H          31.1738   12.7141   16.3807 H       1  LIG1        0.0622
     13 H          29.8448   11.1722   17.8044 H       1  LIG1        0.0646
     14 H          26.9882   14.2736   18.5527 H       1  LIG1        0.0646
     15 H          28.2920   15.8422   17.1349 H       1  LIG1        0.0622
     16 H          30.0888   15.4966   14.8424 H       1  LIG1        0.0471
     17 H          31.5830   14.8777   15.5177 H       1  LIG1        0.0471
@<TRIPOS>BOND            
     1     1     2   ar     
     2     1     6   ar     
     3     1     8    1     
     4     2     3   ar     
     5     2    12    1     
     6     3     4   ar     
     7     3    13    1     
     8     4     5   ar     
     9     4     7    1     
    10     5     6   ar     
    11     5    14    1     
    12     6    15    1     
    13     8     9    1     
    14     8    16    1     
    15     8    17    1     
    16     9    10    1     
    17     9    11    1     
TER
ENDMDL
MODEL       3       -21.86
@<TRIPOS>MOLECULE
ligand           
 17 17 0 0 0  
SMALL        
GASTEIGER    
             
@<TRIPOS>ATOM
      1 C          29.3542   13.4298   17.6496 C.ar    1  LIG1       -0.0336
      2 C          30.4933   13.1020   16.8968 C.ar    1  LIG1       -0.0546
      3 C          30.6648   11.8080   16.4030 C.ar    1  LIG1       -0.0262
      4 C          29.6961   10.8441   16.6550 C.ar    1  LIG1        0.1234
      5 C          28.5570   11.1497   17.3898 C.ar    1  LIG1       -0.0262
      6 C          28.3830   12.4431   17.8844 C.ar    1  LIG1       -0.0546
      7 F          29.8619    9.6025   16.1806 F       1  LIG1       -0.2055
      8 C          29.1559   14.8337   18.1623 C.3     1  LIG1        0.0185
      9 N          28.2633   15.5907   17.2943 N.3     1  LIG1       -0.3261
     10 H          27.7976   16.3085   17.8479 H       1  LIG1        0.1185
     11 H          28.8231   16.0961   16.6087 H       1  LIG1        0.1185
     12 H          31.2523   13.8550   16.6941 H       1  LIG1        0.0622
     13 H          31.5450   11.5466   15.8247 H       1  LIG1        0.0646
     14 H          27.8131   10.3808   17.5719 H       1  LIG1        0.0646
     15 H          27.4877   12.6793   18.4559 H       1  LIG1        0.0622
     16 H          30.1217   15.3468   18.2346 H       1  LIG1        0.0471
     17 H          28.7464   14.8088   19.1786 H       1  LIG1        0.0471
@<TRIPOS>BOND            
     1     1     2   ar     
     2     1     6   ar     
     3     1     8    1     
     4     2     3   ar     
     5     2    12    1     
     6     3     4   ar     
     7     3    13    1     
     8     4     5   ar     
     9     4     7    1     
    10     5     6   ar     
    11     5    14    1     
    12     6    15    1     
    13     8     9    1     
    14     8    16    1     
    15     8    17    1     
    16     9    10    1     
    17     9    11    1     
TER
ENDMDL
MODEL       4       -26.10
@<TRIPOS>MOLECULE
ligand           
 17 17 0 0 0  
SMALL        
GASTEIGER    
             
@<TRIPOS>ATOM
      1 C          28.5834   13.5563   19.2806 C.ar    1  LIG1       -0.0336
      2 C          29.5150   13.0449   18.3627 C.ar    1  LIG1       -0.0546
      3 C          29.2993   11.8083   17.7529 C.ar    1  LIG1       -0.0262
      4 C          28.1508   11.0863   18.0542 C.ar    1  LIG1        0.1234
      5 C          27.2118   11.5782   18.9525 C.ar    1  LIG1       -0.0262
      6 C          27.4250   12.8148   19.5635 C.ar    1  LIG1       -0.0546
      7 F          27.9451    9.8995   17.4683 F       1  LIG1       -0.2055
      8 C          28.8032   14.9034   19.9211 C.3     1  LIG1        0.0185
      9 N          28.8445   14.7960   21.3737 N.3     1  LIG1       -0.3261
     10 H          28.9493   15.7294   21.7691 H       1  LIG1        0.1185
     11 H          27.9404   14.4604   21.7037 H       1  LIG1        0.1185
     12 H          30.4137   13.6090   18.1213 H       1  LIG1        0.0622
     13 H          30.0175   11.4049   17.0464 H       1  LIG1        0.0646
     14 H          26.3213   10.9974   19.1705 H       1  LIG1        0.0646
     15 H          26.6852   13.1983   20.2632 H       1  LIG1        0.0622
     16 H          28.0053   15.5942   19.6256 H       1  LIG1        0.0471
     17 H          29.7388   15.3442   19.5584 H       1  LIG1        0.0471
@<TRIPOS>BOND            
     1     1     2   ar     
     2     1     6   ar     
     3     1     8    1     
     4     2     3   ar     
     5     2    12    1     
     6     3     4   ar     
     7     3    13    1     
     8     4     5   ar     
     9     4     7    1     
    10     5     6   ar     
    11     5    14    1     
    12     6    15    1     
    13     8     9    1     
    14     8    16    1     
    15     8    17    1     
    16     9    10    1     
    17     9    11    1     
TER
ENDMDL
MODEL       5       -29.57
@<TRIPOS>MOLECULE
ligand           
 17 17 0 0 0  
SMALL        
GASTEIGER    
             
@<TRIPOS>ATOM
      1 C          28.0064   14.7531   18.5666 C.ar    1  LIG1       -0.0336
      2 C          28.9092   14.9403   17.5075 C.ar    1  LIG1       -0.0546
      3 C          29.3616   13.8491   16.7644 C.ar    1  LIG1       -0.0262
      4 C          28.9074   12.5729   17.0744 C.ar    1  LIG1        0.1234
      5 C          28.0070   12.3666   18.1124 C.ar    1  LIG1       -0.0262
      6 C          27.5526   13.4563   18.8568 C.ar    1  LIG1       -0.0546
      7 F          29.3426   11.5263   16.3606 F       1  LIG1       -0.2055
      8 C          27.4977   15.9341   19.3538 C.3     1  LIG1        0.0185
      9 N          28.5409   16.4871   20.2077 N.3     1  LIG1       -0.3261
     10 H          28.3346   16.2462   21.1763 H       1  LIG1        0.1185
     11 H          29.4218   16.0215   19.9930 H       1  LIG1        0.1185
     12 H          29.2643   15.9385   17.2592 H       1  LIG1        0.0622
     13 H          30.0631   13.9859   15.9478 H       1  LIG1        0.0646
     14 H          27.6646   11.3611   18.3345 H       1  LIG1        0.0646
     15 H          26.8444   13.2909   19.6661 H       1  LIG1        0.0622
     16 H          26.6400   15.6351   19.9671 H       1  LIG1        0.0471
     17 H          27.1304   16.7102   18.6728 H       1  LIG1        0.0471
@<TRIPOS>BOND            
     1     1     2   ar     
     2     1     6   ar     
     3     1     8    1     
     4     2     3   ar     
     5     2    12    1     
     6     3     4   ar     
     7     3    13    1     
     8     4     5   ar     
     9     4     7    1     
    10     5     6   ar     
    11     5    14    1     
    12     6    15    1     
    13     8     9    1     
    14     8    16    1     
    15     8    17    1     
    16     9    10    1     
    17     9    11    1     
TER
ENDMDL
