@<TRIPOS>MOLECULE        
ligand                   
  48  49 0 0 0
SMALL                    
GASTEIGER                
                         
@<TRIPOS>ATOM            
      1 C          21.6688   11.5471   43.0272 C.2     1  LIG1        0.3485
      2 O          21.4168   11.6011   44.2220 O.2     1  LIG1       -0.2465
      3 O          22.6414   10.7219   42.5839 O.3     1  LIG1       -0.4779
      4 C          20.9713   12.3396   41.9057 C.3     1  LIG1        0.2003
      5 C          22.0658   13.2267   41.2798 C.3     1  LIG1       -0.0145
      6 C          20.4532   11.4100   40.7965 C.3     1  LIG1       -0.0145
      7 O          19.9495   13.2536   42.3070 O.3     1  LIG1       -0.4751
      8 C          19.5230   14.2763   41.5132 C.ar    1  LIG1        0.1221
      9 C          18.7936   14.1843   40.3313 C.ar    1  LIG1       -0.0196
     10 C          18.4369   15.3420   39.6279 C.ar    1  LIG1       -0.0547
     11 C          18.8035   16.6103   40.0951 C.ar    1  LIG1       -0.0384
     12 C          19.5315   16.7000   41.2844 C.ar    1  LIG1       -0.0547
     13 C          19.8868   15.5424   41.9812 C.ar    1  LIG1       -0.0196
     14 C          18.4255   17.8506   39.3222 C.3     1  LIG1        0.0494
     15 C          19.1840   17.9835   38.0110 C.2     1  LIG1        0.2215
     16 O          20.3882   17.7181   37.9412 O.2     1  LIG1       -0.2751
     17 N          18.5408   18.4186   36.8803 N.am    1  LIG1       -0.2852
     18 C          17.2747   19.0109   36.8351 C.ar    1  LIG1        0.0339
     19 C          16.3732   18.6668   35.8272 C.ar    1  LIG1       -0.0375
     20 C          15.1117   19.2708   35.7768 C.ar    1  LIG1       -0.0484
     21 C          14.7855   20.2514   36.7241 C.ar    1  LIG1       -0.0558
     22 C          15.7016   20.6265   37.7168 C.ar    1  LIG1       -0.0484
     23 C          16.9505   19.9960   37.7674 C.ar    1  LIG1       -0.0375
     24 C          15.3316   21.6489   38.7504 C.3     1  LIG1       -0.0396
     25 C          14.1463   18.9203   34.6833 C.3     1  LIG1       -0.0396
     26 H          23.4654   11.2445   42.6658 H       1  LIG1        0.2952
     27 H          19.1944   18.6703   36.1475 H       1  LIG1        0.1548
     28 H          22.9191   12.6353   40.9296 H       1  LIG1        0.0273
     29 H          21.6695   13.8024   40.4350 H       1  LIG1        0.0273
     30 H          22.4386   13.9607   42.0044 H       1  LIG1        0.0273
     31 H          21.2651   10.8228   40.3529 H       1  LIG1        0.0273
     32 H          19.7107   10.6976   41.1665 H       1  LIG1        0.0273
     33 H          19.9648   11.9855   40.0017 H       1  LIG1        0.0273
     34 H          18.4814   13.2372   39.9077 H       1  LIG1        0.0654
     35 H          17.8719   15.2441   38.7012 H       1  LIG1        0.0622
     36 H          19.8384   17.6668   41.6774 H       1  LIG1        0.0622
     37 H          20.4575   15.6303   42.9028 H       1  LIG1        0.0654
     38 H          18.5392   18.7511   39.9317 H       1  LIG1        0.0407
     39 H          17.3542   17.8068   39.0855 H       1  LIG1        0.0407
     40 H          16.6536   17.9322   35.0761 H       1  LIG1        0.0639
     41 H          13.8098   20.7330   36.6841 H       1  LIG1        0.0623
     42 H          17.6596   20.2625   38.5477 H       1  LIG1        0.0639
     43 H          14.5440   22.3149   38.3830 H       1  LIG1        0.0278
     44 H          16.1947   22.2743   39.0016 H       1  LIG1        0.0278
     45 H          14.9754   21.1510   39.6574 H       1  LIG1        0.0278
     46 H          13.1118   19.0504   35.0175 H       1  LIG1        0.0278
     47 H          14.3199   19.5596   33.8123 H       1  LIG1        0.0278
     48 H          14.2606   17.8732   34.3836 H       1  LIG1        0.0278
@<TRIPOS>BOND            
     1     1     2    2     
     2     1     3    1     
     3     1     4    1     
     4     3    26    1     
     5     4     5    1     
     6     4     6    1     
     7     4     7    1     
     8     5    28    1     
     9     5    29    1     
    10     5    30    1     
    11     6    31    1     
    12     6    32    1     
    13     6    33    1     
    14     7     8    1     
    15     8     9   ar     
    16     8    13   ar     
    17     9    10   ar     
    18     9    34    1     
    19    10    11   ar     
    20    10    35    1     
    21    11    12   ar     
    22    11    14    1     
    23    12    13   ar     
    24    12    36    1     
    25    13    37    1     
    26    14    15    1     
    27    14    38    1     
    28    14    39    1     
    29    15    16    2     
    30    15    17   am     
    31    17    18    1     
    32    17    27    1     
    33    18    19   ar     
    34    18    23   ar     
    35    19    20   ar     
    36    19    40    1     
    37    20    21   ar     
    38    20    25    1     
    39    21    22   ar     
    40    21    41    1     
    41    22    23   ar     
    42    22    24    1     
    43    23    42    1     
    44    24    43    1     
    45    24    44    1     
    46    24    45    1     
    47    25    46    1     
    48    25    47    1     
    49    25    48    1     
TER
ENDMDL
