@<TRIPOS>MOLECULE        
ligand                   
  48  49 0 0 0
SMALL                    
GASTEIGER                
                         
@<TRIPOS>ATOM            
      1 S         -11.4108   15.5221   66.2065 S.3     1  UNL1       -0.1233
      2 C         -11.2127   16.8163   64.9397 C.3     1  UNL1       -0.0005
      3 C         -11.2259   18.1926   65.6052 C.3     1  UNL1       -0.0309
      4 C          -9.8597   18.4908   66.2401 C.3     1  UNL1       -0.0009
      5 N          -9.7336   19.7581   66.9720 N.3     1  UNL1       -0.3083
      6 C         -10.4275   19.7440   68.2570 C.3     1  UNL1       -0.0131
      7 C          -8.3449   20.1827   67.1346 C.3     1  UNL1       -0.0131
      8 C         -10.9152   14.0838   65.2588 C.ar    1  UNL1        0.0291
      9 C          -9.7040   13.3827   65.4233 C.ar    1  UNL1        0.0471
     10 N          -8.7423   13.7082   66.4040 N.am    1  UNL1       -0.2810
     11 C          -8.2379   14.9880   66.5478 C.2     1  UNL1        0.2411
     12 O          -8.4742   15.9478   65.8305 O.2     1  UNL1       -0.2705
     13 C          -7.3852   15.1016   67.7594 C.2     1  UNL1        0.0010
     14 C          -6.2683   15.8394   67.8786 C.2     1  UNL1       -0.0497
     15 C          -5.5373   16.6508   66.8884 C.ar    1  UNL1       -0.0249
     16 C          -6.2118   17.6922   66.2364 C.ar    1  UNL1       -0.0546
     17 C          -5.5411   18.5218   65.3335 C.ar    1  UNL1       -0.0612
     18 C          -4.1854   18.3257   65.0808 C.ar    1  UNL1       -0.0617
     19 C          -3.5008   17.3036   65.7334 C.ar    1  UNL1       -0.0612
     20 C          -4.1722   16.4768   66.6380 C.ar    1  UNL1       -0.0546
     21 C          -9.3799   12.3331   64.5519 C.ar    1  UNL1       -0.0394
     22 C         -10.2699   11.9425   63.5514 C.ar    1  UNL1       -0.0599
     23 C         -11.4850   12.6042   63.4081 C.ar    1  UNL1       -0.0606
     24 C         -11.8039   13.6678   64.2547 C.ar    1  UNL1       -0.0465
     25 H          -8.7089   13.1026   67.2121 H       1  UNL1        0.1551
     26 H         -12.0307   16.7367   64.2158 H       1  UNL1        0.0380
     27 H         -10.2679   16.6732   64.4081 H       1  UNL1        0.0380
     28 H         -11.4670   18.9590   64.8592 H       1  UNL1        0.0286
     29 H         -12.0063   18.2198   66.3739 H       1  UNL1        0.0286
     30 H          -9.0906   18.4665   65.4568 H       1  UNL1        0.0427
     31 H          -9.5947   17.6730   66.9232 H       1  UNL1        0.0427
     32 H         -11.4737   19.4443   68.1302 H       1  UNL1        0.0391
     33 H          -9.9587   19.0706   68.9825 H       1  UNL1        0.0391
     34 H         -10.4412   20.7500   68.6915 H       1  UNL1        0.0391
     35 H          -7.8290   20.2034   66.1682 H       1  UNL1        0.0391
     36 H          -7.7809   19.5359   67.8152 H       1  UNL1        0.0391
     37 H          -8.3055   21.2036   67.5311 H       1  UNL1        0.0391
     38 H          -7.7405   14.5608   68.6300 H       1  UNL1        0.0670
     39 H          -5.7963   15.8503   68.8603 H       1  UNL1        0.0625
     40 H          -7.2708   17.8611   66.4167 H       1  UNL1        0.0623
     41 H          -6.0791   19.3171   64.8248 H       1  UNL1        0.0618
     42 H          -3.6643   18.9641   64.3728 H       1  UNL1        0.0618
     43 H          -2.4448   17.1397   65.5355 H       1  UNL1        0.0618
     44 H          -3.6142   15.6889   67.1334 H       1  UNL1        0.0623
     45 H          -8.4453   11.7898   64.6633 H       1  UNL1        0.0636
     46 H         -10.0200   11.1150   62.8923 H       1  UNL1        0.0618
     47 H         -12.1868   12.2969   62.6367 H       1  UNL1        0.0618
     48 H         -12.7546   14.1794   64.1178 H       1  UNL1        0.0629
@<TRIPOS>BOND            
     1     1     2    1     
     2     1     8    1     
     3     2     3    1     
     4     2    26    1     
     5     2    27    1     
     6     3     4    1     
     7     3    28    1     
     8     3    29    1     
     9     4     5    1     
    10     4    30    1     
    11     4    31    1     
    12     5     6    1     
    13     5     7    1     
    14     6    32    1     
    15     6    33    1     
    16     6    34    1     
    17     7    35    1     
    18     7    36    1     
    19     7    37    1     
    20     8     9   ar     
    21     8    24   ar     
    22     9    10    1     
    23     9    21   ar     
    24    10    11   am     
    25    10    25    1     
    26    11    12    2     
    27    11    13    1     
    28    13    14    2     
    29    13    38    1     
    30    14    15    1     
    31    14    39    1     
    32    15    16   ar     
    33    15    20   ar     
    34    16    17   ar     
    35    16    40    1     
    36    17    18   ar     
    37    17    41    1     
    38    18    19   ar     
    39    18    42    1     
    40    19    20   ar     
    41    19    43    1     
    42    20    44    1     
    43    21    22   ar     
    44    21    45    1     
    45    22    23   ar     
    46    22    46    1     
    47    23    24   ar     
    48    23    47    1     
    49    24    48    1     
TER
ENDMDL
