ligand
 OpenBabel07042000223D                                                          
                                                                                
 48 49  0  0  0  0  0  0  0  0999 V2000                                         
   -2.7826   -0.3459   -1.4576 S   0  0  0  0  0  0  0  0  0  0  0  0           
    1.4248   -2.8956    0.8107 O   0  0  0  0  0  0  0  0  0  0  0  0           
   -3.9951    4.4343    0.2125 N   0  0  0  0  0  0  0  0  0  0  0  0           
   -0.2199   -1.5752   -0.2299 N   0  0  0  0  0  0  0  0  0  0  0  0           
   -3.4214    2.1634   -0.5157 C   0  0  0  0  0  0  0  0  0  0  0  0           
   -3.7757    3.0661    0.6666 C   0  0  0  0  0  0  0  0  0  0  0  0           
   -3.2109    0.7234   -0.0538 C   0  0  0  0  0  0  0  0  0  0  0  0           
   -2.7801    4.9753   -0.3992 C   0  0  0  0  0  0  0  0  0  0  0  0           
   -4.4251    5.2838    1.3245 C   0  0  0  0  0  0  0  0  0  0  0  0           
   -2.5970   -1.9323   -0.6511 C   0  0  0  0  0  0  0  0  0  0  0  0           
   -1.3724   -2.3628   -0.1391 C   0  0  0  0  0  0  0  0  0  0  0  0           
   -3.7234   -2.7485   -0.5412 C   0  0  0  0  0  0  0  0  0  0  0  0           
   -1.2745   -3.6079    0.4821 C   0  0  0  0  0  0  0  0  0  0  0  0           
   -3.6254   -3.9935    0.0801 C   0  0  0  0  0  0  0  0  0  0  0  0           
   -2.4011   -4.4232    0.5917 C   0  0  0  0  0  0  0  0  0  0  0  0           
    1.0660   -1.8757    0.2341 C   0  0  0  0  0  0  0  0  0  0  0  0           
    2.0273   -0.7684   -0.0575 C   0  0  0  0  0  0  0  0  0  0  0  0           
    4.3354    0.1600    0.0989 C   0  0  0  0  0  0  0  0  0  0  0  0           
    3.3084   -0.8723    0.3260 C   0  0  0  0  0  0  0  0  0  0  0  0           
    4.1309    1.1157   -0.8831 C   0  0  0  0  0  0  0  0  0  0  0  0           
    5.4853    0.1546    0.8717 C   0  0  0  0  0  0  0  0  0  0  0  0           
    5.1030    2.0925   -1.0984 C   0  0  0  0  0  0  0  0  0  0  0  0           
    6.4574    1.1316    0.6563 C   0  0  0  0  0  0  0  0  0  0  0  0           
    6.2661    2.1006   -0.3287 C   0  0  0  0  0  0  0  0  0  0  0  0           
   -4.2218    2.2059   -1.2657 H   0  0  0  0  0  0  0  0  0  0  0  0           
   -2.4935    2.4899   -0.9978 H   0  0  0  0  0  0  0  0  0  0  0  0           
   -2.9846    3.0194    1.4267 H   0  0  0  0  0  0  0  0  0  0  0  0           
   -4.6930    2.6825    1.1312 H   0  0  0  0  0  0  0  0  0  0  0  0           
   -2.4037    0.6782    0.6853 H   0  0  0  0  0  0  0  0  0  0  0  0           
   -4.1233    0.3414    0.4166 H   0  0  0  0  0  0  0  0  0  0  0  0           
   -2.5826    4.5317   -1.3796 H   0  0  0  0  0  0  0  0  0  0  0  0           
   -2.8985    6.0480   -0.5964 H   0  0  0  0  0  0  0  0  0  0  0  0           
   -1.8977    4.8522    0.2394 H   0  0  0  0  0  0  0  0  0  0  0  0           
   -5.3517    4.9003    1.7662 H   0  0  0  0  0  0  0  0  0  0  0  0           
   -3.6667    5.3472    2.1133 H   0  0  0  0  0  0  0  0  0  0  0  0           
   -4.6441    6.2982    0.9729 H   0  0  0  0  0  0  0  0  0  0  0  0           
   -4.6879   -2.4335   -0.9324 H   0  0  0  0  0  0  0  0  0  0  0  0           
   -0.3730   -4.0232    0.9064 H   0  0  0  0  0  0  0  0  0  0  0  0           
   -0.3571   -0.6792   -0.6932 H   0  0  0  0  0  0  0  0  0  0  0  0           
   -4.5024   -4.6284    0.1657 H   0  0  0  0  0  0  0  0  0  0  0  0           
   -2.3266   -5.3930    1.0752 H   0  0  0  0  0  0  0  0  0  0  0  0           
    1.6318    0.1072   -0.5591 H   0  0  0  0  0  0  0  0  0  0  0  0           
    3.6524   -1.7597    0.8523 H   0  0  0  0  0  0  0  0  0  0  0  0           
    3.2530    1.1354   -1.5208 H   0  0  0  0  0  0  0  0  0  0  0  0           
    5.6483   -0.5928    1.6437 H   0  0  0  0  0  0  0  0  0  0  0  0           
    4.9572    2.8442   -1.8687 H   0  0  0  0  0  0  0  0  0  0  0  0           
    7.3631    1.1380    1.2556 H   0  0  0  0  0  0  0  0  0  0  0  0           
    7.0236    2.8605   -0.4971 H   0  0  0  0  0  0  0  0  0  0  0  0           
  1  7  1  0  0  0  0                                                           
  1 10  1  0  0  0  0                                                           
  2 16  2  0  0  0  0                                                           
  3  6  1  0  0  0  0                                                           
  3  8  1  0  0  0  0                                                           
  3  9  1  0  0  0  0                                                           
  4 11  1  0  0  0  0                                                           
  4 16  1  0  0  0  0                                                           
  4 39  1  0  0  0  0                                                           
  5  6  1  0  0  0  0                                                           
  5  7  1  0  0  0  0                                                           
  5 25  1  0  0  0  0                                                           
  5 26  1  0  0  0  0                                                           
  6 27  1  0  0  0  0                                                           
  6 28  1  0  0  0  0                                                           
  7 29  1  0  0  0  0                                                           
  7 30  1  0  0  0  0                                                           
  8 31  1  0  0  0  0                                                           
  8 32  1  0  0  0  0                                                           
  8 33  1  0  0  0  0                                                           
  9 34  1  0  0  0  0                                                           
  9 35  1  0  0  0  0                                                           
  9 36  1  0  0  0  0                                                           
 10 11  1  0  0  0  0                                                           
 10 12  2  0  0  0  0                                                           
 11 13  2  0  0  0  0                                                           
 12 14  1  0  0  0  0                                                           
 12 37  1  0  0  0  0                                                           
 13 15  1  0  0  0  0                                                           
 13 38  1  0  0  0  0                                                           
 14 15  2  0  0  0  0                                                           
 14 40  1  0  0  0  0                                                           
 15 41  1  0  0  0  0                                                           
 16 17  1  0  0  0  0                                                           
 17 19  2  0  0  0  0                                                           
 17 42  1  0  0  0  0                                                           
 18 19  1  0  0  0  0                                                           
 18 20  2  0  0  0  0                                                           
 18 21  1  0  0  0  0                                                           
 19 43  1  0  0  0  0                                                           
 20 22  1  0  0  0  0                                                           
 20 44  1  0  0  0  0                                                           
 21 23  2  0  0  0  0                                                           
 21 45  1  0  0  0  0                                                           
 22 24  2  0  0  0  0                                                           
 22 46  1  0  0  0  0                                                           
 23 24  1  0  0  0  0                                                           
 23 47  1  0  0  0  0                                                           
 24 48  1  0  0  0  0                                                           
M  END                                                                          
