@<TRIPOS>MOLECULE
ligand
 48 49 0 0 0
SMALL
GASTEIGER

@<TRIPOS>ATOM
      1 S           6.2497    9.0201    9.7057 S.3     1  UNL1       -0.1233
      2 C           6.6526   10.6584    9.0182 C.3     1  UNL1       -0.0005
      3 C           6.2447   11.7466   10.0116 C.3     1  UNL1       -0.0309
      4 C           6.6175   13.1330    9.4663 C.3     1  UNL1       -0.0009
      5 N           6.3367   14.2827   10.3363 N.3     1  UNL1       -0.3083
      6 C           4.9137   14.4457   10.6215 C.3     1  UNL1       -0.0131
      7 C           7.1166   14.2621   11.5719 C.3     1  UNL1       -0.0131
      8 C           6.8012    7.9753    8.3578 C.ar    1  UNL1        0.0291
      9 C           8.1363    7.8469    7.9258 C.ar    1  UNL1        0.0471
     10 N           9.2223    8.5017    8.5459 N.am    1  UNL1       -0.2810
     11 C           9.6273    8.2026    9.8341 C.2     1  UNL1        0.2411
     12 O           9.0796    7.4333   10.6086 O.2     1  UNL1       -0.2705
     13 C          10.8945    8.8977   10.1790 C.2     1  UNL1        0.0010
     14 C          11.2195    9.4081   11.3790 C.2     1  UNL1       -0.0497
     15 C          10.4428    9.5075   12.6281 C.ar    1  UNL1       -0.0249
     16 C          11.1065    9.3470   13.8521 C.ar    1  UNL1       -0.0546
     17 C          10.4193    9.4904   15.0606 C.ar    1  UNL1       -0.0612
     18 C           9.0628    9.8066   15.0583 C.ar    1  UNL1       -0.0617
     19 C           8.3956    9.9830   13.8488 C.ar    1  UNL1       -0.0612
     20 C           9.0848    9.8421   12.6414 C.ar    1  UNL1       -0.0546
     21 C           8.4332    7.0773    6.7920 C.ar    1  UNL1       -0.0394
     22 C           7.4228    6.3951    6.1143 C.ar    1  UNL1       -0.0599
     23 C           6.1077    6.4852    6.5585 C.ar    1  UNL1       -0.0606
     24 C           5.7997    7.2709    7.6710 C.ar    1  UNL1       -0.0465
     25 H           9.9089    8.9081    7.9260 H       1  UNL1        0.1551
     26 H           6.1192   10.7899    8.0707 H       1  UNL1        0.0380
     27 H           7.7261   10.7237    8.8205 H       1  UNL1        0.0380
     28 H           5.1645   11.6934   10.1915 H       1  UNL1        0.0286
     29 H           6.7499   11.5761   10.9688 H       1  UNL1        0.0286
     30 H           6.1013   13.2896    8.5099 H       1  UNL1        0.0427
     31 H           7.6867   13.1454    9.2168 H       1  UNL1        0.0427
     32 H           4.3330   14.4806    9.6931 H       1  UNL1        0.0391
     33 H           4.5147   13.6430   11.2509 H       1  UNL1        0.0391
     34 H           4.7368   15.3967   11.1366 H       1  UNL1        0.0391
     35 H           8.1849   14.1509   11.3555 H       1  UNL1        0.0391
     36 H           6.8144   13.4571   12.2503 H       1  UNL1        0.0391
     37 H           7.0038   15.2122   12.1062 H       1  UNL1        0.0391
     38 H          11.6278    8.9500    9.3814 H       1  UNL1        0.0670
     39 H          12.2169    9.8366   11.4701 H       1  UNL1        0.0625
     40 H          12.1645    9.0970   13.8769 H       1  UNL1        0.0623
     41 H          10.9429    9.3501   16.0024 H       1  UNL1        0.0618
     42 H           8.5249    9.9101   15.9966 H       1  UNL1        0.0618
     43 H           7.3355   10.2224   13.8390 H       1  UNL1        0.0618
     44 H           8.5407    9.9862   11.7136 H       1  UNL1        0.0623
     45 H           9.4579    6.9769    6.4440 H       1  UNL1        0.0636
     46 H           7.6637    5.7846    5.2478 H       1  UNL1        0.0618
     47 H           5.3179    5.9470    6.0402 H       1  UNL1        0.0618
     48 H           4.7628    7.3371    7.9946 H       1  UNL1        0.0629
@<TRIPOS>BOND
     1     1     2    1
     2     1     8    1
     3     2     3    1
     4     2    26    1
     5     2    27    1
     6     3     4    1
     7     3    28    1
     8     3    29    1
     9     4     5    1
    10     4    30    1
    11     4    31    1
    12     5     6    1
    13     5     7    1
    14     6    32    1
    15     6    33    1
    16     6    34    1
    17     7    35    1
    18     7    36    1
    19     7    37    1
    20     8     9   ar
    21     8    24   ar
    22     9    10    1
    23     9    21   ar
    24    10    11   am
    25    10    25    1
    26    11    12    2
    27    11    13    1
    28    13    14    2
    29    13    38    1
    30    14    15    1
    31    14    39    1
    32    15    16   ar
    33    15    20   ar
    34    16    17   ar
    35    16    40    1
    36    17    18   ar
    37    17    41    1
    38    18    19   ar
    39    18    42    1
    40    19    20   ar
    41    19    43    1
    42    20    44    1
    43    21    22   ar
    44    21    45    1
    45    22    23   ar
    46    22    46    1
    47    23    24   ar
    48    23    47    1
    49    24    48    1
