@<TRIPOS>MOLECULE
ligand           
  48  49 0 0 0
SMALL        
GASTEIGER    
             
@<TRIPOS>ATOM
      1 S          -8.8012   16.5783   68.1925 S.3     1  UNL1       -0.1233
      2 C          -9.6097   15.8582   69.6577 C.3     1  UNL1       -0.0005
      3 C          -9.7677   14.3494   69.4675 C.3     1  UNL1       -0.0309
      4 C         -11.2516   13.9837   69.3168 C.3     1  UNL1       -0.0009
      5 N         -11.7139   12.7887   70.0349 N.3     1  UNL1       -0.3083
      6 C         -12.3102   11.7899   69.1520 C.3     1  UNL1       -0.0131
      7 C         -10.6737   12.1914   70.8696 C.3     1  UNL1       -0.0131
      8 C          -8.4933   18.2383   68.7942 C.ar    1  UNL1        0.0291
      9 C          -7.3666   19.0211   68.4726 C.ar    1  UNL1        0.0471
     10 N          -6.3530   18.6000   67.5849 N.am    1  UNL1       -0.2810
     11 C          -5.0562   19.0741   67.6659 C.2     1  UNL1        0.2411
     12 O          -4.6450   19.9423   68.4201 O.2     1  UNL1       -0.2705
     13 C          -4.1527   18.3421   66.7408 C.2     1  UNL1        0.0010
     14 C          -3.1261   18.8681   66.0513 C.2     1  UNL1       -0.0497
     15 C          -2.6522   20.2594   65.9367 C.ar    1  UNL1       -0.0249
     16 C          -3.4726   21.2036   65.3043 C.ar    1  UNL1       -0.0546
     17 C          -3.0871   22.5447   65.2252 C.ar    1  UNL1       -0.0612
     18 C          -1.8817   22.9582   65.7873 C.ar    1  UNL1       -0.0617
     19 C          -1.0649   22.0322   66.4312 C.ar    1  UNL1       -0.0612
     20 C          -1.4531   20.6923   66.5119 C.ar    1  UNL1       -0.0546
     21 C          -7.1831   20.2679   69.0872 C.ar    1  UNL1       -0.0394
     22 C          -8.1331   20.7646   69.9795 C.ar    1  UNL1       -0.0599
     23 C          -9.2678   20.0149   70.2717 C.ar    1  UNL1       -0.0606
     24 C          -9.4451   18.7605   69.6844 C.ar    1  UNL1       -0.0465
     25 H          -6.4918   17.7004   67.1464 H       1  UNL1        0.1551
     26 H         -10.5895   16.3285   69.7931 H       1  UNL1        0.0380
     27 H          -9.0071   16.0561   70.5485 H       1  UNL1        0.0380
     28 H          -9.2117   14.0313   68.5777 H       1  UNL1        0.0286
     29 H          -9.3421   13.8254   70.3304 H       1  UNL1        0.0286
     30 H         -11.4798   13.8554   68.2504 H       1  UNL1        0.0427
     31 H         -11.8660   14.8352   69.6378 H       1  UNL1        0.0427
     32 H         -13.1032   12.2354   68.5411 H       1  UNL1        0.0391
     33 H         -11.5769   11.3252   68.4842 H       1  UNL1        0.0391
     34 H         -12.7798   10.9945   69.7418 H       1  UNL1        0.0391
     35 H         -10.2352   12.9397   71.5391 H       1  UNL1        0.0391
     36 H          -9.8686   11.7367   70.2826 H       1  UNL1        0.0391
     37 H         -11.1035   11.4132   71.5104 H       1  UNL1        0.0391
     38 H          -4.3332   17.2754   66.6622 H       1  UNL1        0.0670
     39 H          -2.5317   18.1725   65.4600 H       1  UNL1        0.0625
     40 H          -4.4162   20.9019   64.8560 H       1  UNL1        0.0623
     41 H          -3.7263   23.2640   64.7203 H       1  UNL1        0.0618
     42 H          -1.5763   23.9987   65.7194 H       1  UNL1        0.0618
     43 H          -0.1193   22.3461   66.8655 H       1  UNL1        0.0618
     44 H          -0.7981   19.9922   67.0203 H       1  UNL1        0.0623
     45 H          -6.3142   20.8776   68.8537 H       1  UNL1        0.0636
     46 H          -7.9935   21.7408   70.4369 H       1  UNL1        0.0618
     47 H         -10.0165   20.4021   70.9584 H       1  UNL1        0.0618
     48 H         -10.3340   18.1854   69.9358 H       1  UNL1        0.0629
@<TRIPOS>BOND            
     1     1     2    1     
     2     1     8    1     
     3     2     3    1     
     4     2    26    1     
     5     2    27    1     
     6     3     4    1     
     7     3    28    1     
     8     3    29    1     
     9     4     5    1     
    10     4    30    1     
    11     4    31    1     
    12     5     6    1     
    13     5     7    1     
    14     6    32    1     
    15     6    33    1     
    16     6    34    1     
    17     7    35    1     
    18     7    36    1     
    19     7    37    1     
    20     8     9   ar     
    21     8    24   ar     
    22     9    10    1     
    23     9    21   ar     
    24    10    11   am     
    25    10    25    1     
    26    11    12    2     
    27    11    13    1     
    28    13    14    2     
    29    13    38    1     
    30    14    15    1     
    31    14    39    1     
    32    15    16   ar     
    33    15    20   ar     
    34    16    17   ar     
    35    16    40    1     
    36    17    18   ar     
    37    17    41    1     
    38    18    19   ar     
    39    18    42    1     
    40    19    20   ar     
    41    19    43    1     
    42    20    44    1     
    43    21    22   ar     
    44    21    45    1     
    45    22    23   ar     
    46    22    46    1     
    47    23    24   ar     
    48    23    47    1     
    49    24    48    1     
TER
ENDMDL
