@<TRIPOS>MOLECULE
ligand           
  0 17 0 0 0  
SMALL        
GASTEIGER    
             
@<TRIPOS>ATOM
      1 C          27.9927   14.7533   18.5556 C.ar    1  LIG1       -0.0336
      2 C          28.9076   14.9390   17.5047 C.ar    1  LIG1       -0.0546
      3 C          29.3633   13.8477   16.7645 C.ar    1  LIG1       -0.0262
      4 C          28.9079   12.5725   17.0744 C.ar    1  LIG1        0.1234
      5 C          28.0089   12.3659   18.1137 C.ar    1  LIG1       -0.0262
      6 C          27.5533   13.4553   18.8572 C.ar    1  LIG1       -0.0546
      7 F          29.3421   11.5257   16.3605 F       1  LIG1       -0.2055
      8 C          27.4978   15.9347   19.3532 C.3     1  LIG1        0.0185
      9 N          28.5391   16.4862   20.2119 N.3     1  LIG1       -0.3261
     10 H          28.3381   16.2380   21.1811 H       1  LIG1        0.1185
     11 H          29.4266   16.0321   19.9990 H       1  LIG1        0.1185
     12 H          29.2627   15.9389   17.2615 H       1  LIG1        0.0622
     13 H          30.0643   13.9828   15.9469 H       1  LIG1        0.0646
     14 H          27.6653   11.3605   18.3344 H       1  LIG1        0.0646
     15 H          26.8465   13.2874   19.6670 H       1  LIG1        0.0622
     16 H          26.6385   15.6418   19.9676 H       1  LIG1        0.0471
     17 H          27.1360   16.7090   18.6670 H       1  LIG1        0.0471
@<TRIPOS>BOND            
     1     1     2   ar     
     2     1     6   ar     
     3     1     8    1     
     4     2     3   ar     
     5     2    12    1     
     6     3     4   ar     
     7     3    13    1     
     8     4     5   ar     
     9     4     7    1     
    10     5     6   ar     
    11     5    14    1     
    12     6    15    1     
    13     8     9    1     
    14     8    16    1     
    15     8    17    1     
    16     9    10    1     
    17     9    11    1     
