MODEL       3      2455.66
@<TRIPOS>MOLECULE
ligand           
  48  49 0 0 0
SMALL        
GASTEIGER    
             
@<TRIPOS>ATOM
      1 S         -10.8825   15.5784   67.6433 S.3     1  UNL1       -0.1233
      2 C         -10.7619   17.1959   66.8138 C.3     1  UNL1       -0.0005
      3 C         -11.2641   18.2932   67.7525 C.3     1  UNL1       -0.0309
      4 C         -10.3499   19.5244   67.6706 C.3     1  UNL1       -0.0009
      5 N          -9.7223   19.7962   66.3706 N.3     1  UNL1       -0.3083
      6 C         -10.5050   19.2927   65.2451 C.3     1  UNL1       -0.0131
      7 C          -9.3914   21.2074   66.1852 C.3     1  UNL1       -0.0131
      8 C         -10.2655   14.5154   66.3387 C.ar    1  UNL1        0.0291
      9 C          -9.0753   13.7636   66.4007 C.ar    1  UNL1        0.0471
     10 N          -8.2384   13.7217   67.5366 N.am    1  UNL1       -0.2810
     11 C          -6.9355   13.2613   67.4777 C.2     1  UNL1        0.2411
     12 O          -6.3807   12.7706   66.5066 O.2     1  UNL1       -0.2705
     13 C          -6.2210   13.4910   68.7601 C.2     1  UNL1        0.0010
     14 C          -5.3142   12.6735   69.3218 C.2     1  UNL1       -0.0497
     15 C          -4.8327   11.3409   68.9146 C.ar    1  UNL1       -0.0249
     16 C          -4.9374   10.9660   67.5682 C.ar    1  UNL1       -0.0546
     17 C          -4.4412    9.7353   67.1295 C.ar    1  UNL1       -0.0612
     18 C          -3.8251    8.8704   68.0309 C.ar    1  UNL1       -0.0617
     19 C          -3.7019    9.2379   69.3684 C.ar    1  UNL1       -0.0612
     20 C          -4.1960   10.4700   69.8048 C.ar    1  UNL1       -0.0546
     21 C          -8.6413   13.0479   65.2758 C.ar    1  UNL1       -0.0394
     22 C          -9.4040   13.0327   64.1080 C.ar    1  UNL1       -0.0599
     23 C         -10.6002   13.7405   64.0526 C.ar    1  UNL1       -0.0606
     24 C         -11.0263   14.4774   65.1595 C.ar    1  UNL1       -0.0465
     25 H          -8.4719   14.3598   68.2844 H       1  UNL1        0.1551
     26 H         -11.3633   17.1745   65.8986 H       1  UNL1        0.0380
     27 H          -9.7226   17.3945   66.5378 H       1  UNL1        0.0380
     28 H         -12.2892   18.5696   67.4791 H       1  UNL1        0.0286
     29 H         -11.2849   17.9141   68.7803 H       1  UNL1        0.0286
     30 H          -9.5565   19.4290   68.4237 H       1  UNL1        0.0427
     31 H         -10.9187   20.4149   67.9692 H       1  UNL1        0.0427
     32 H         -10.7352   18.2297   65.3768 H       1  UNL1        0.0391
     33 H         -11.4452   19.8374   65.1076 H       1  UNL1        0.0391
     34 H          -9.9294   19.3751   64.3162 H       1  UNL1        0.0391
     35 H          -8.7949   21.5804   67.0251 H       1  UNL1        0.0391
     36 H         -10.2790   21.8407   66.0818 H       1  UNL1        0.0391
     37 H          -8.7791   21.3372   65.2857 H       1  UNL1        0.0391
     38 H          -6.4383   14.4337   69.2508 H       1  UNL1        0.0670
     39 H          -4.8464   13.0258   70.2404 H       1  UNL1        0.0625
     40 H          -5.4174   11.6246   66.8483 H       1  UNL1        0.0623
     41 H          -4.5409    9.4512   66.0854 H       1  UNL1        0.0618
     42 H          -3.4463    7.9096   67.6935 H       1  UNL1        0.0618
     43 H          -3.2291    8.5651   70.0790 H       1  UNL1        0.0618
     44 H          -4.0857   10.7317   70.8522 H       1  UNL1        0.0623
     45 H          -7.7210   12.4707   65.3083 H       1  UNL1        0.0636
     46 H          -9.0707   12.4595   63.2467 H       1  UNL1        0.0618
     47 H         -11.2037   13.7234   63.1484 H       1  UNL1        0.0618
     48 H         -11.9592   15.0336   65.0908 H       1  UNL1        0.0629
@<TRIPOS>BOND            
     1     1     2    1     
     2     1     8    1     
     3     2     3    1     
     4     2    26    1     
     5     2    27    1     
     6     3     4    1     
     7     3    28    1     
     8     3    29    1     
     9     4     5    1     
    10     4    30    1     
    11     4    31    1     
    12     5     6    1     
    13     5     7    1     
    14     6    32    1     
    15     6    33    1     
    16     6    34    1     
    17     7    35    1     
    18     7    36    1     
    19     7    37    1     
    20     8     9   ar     
    21     8    24   ar     
    22     9    10    1     
    23     9    21   ar     
    24    10    11   am     
    25    10    25    1     
    26    11    12    2     
    27    11    13    1     
    28    13    14    2     
    29    13    38    1     
    30    14    15    1     
    31    14    39    1     
    32    15    16   ar     
    33    15    20   ar     
    34    16    17   ar     
    35    16    40    1     
    36    17    18   ar     
    37    17    41    1     
    38    18    19   ar     
    39    18    42    1     
    40    19    20   ar     
    41    19    43    1     
    42    20    44    1     
    43    21    22   ar     
    44    21    45    1     
    45    22    23   ar     
    46    22    46    1     
    47    23    24   ar     
    48    23    47    1     
    49    24    48    1     
TER
ENDMDL
